#!/bin/csh -x

#SBATCH --job-name=berror_stats
#SBATCH --partition=s4
#SBATCH --time=04:00:00
#SBATCH --exclusive
#SBATCH --account=star
#SBATCH --ntasks=10
#SBATCH --cpus-per-task=2
#SBATCH --export=ALL
#SBATCH --mem-per-cpu=3000
#SBATCH --distribution=block:block 
#SBATCH --output=./log/nmcbe.%j.out

#set -x

setenv NTHREADS 2

# exp: directory name to save output files
# base: path with scripts, source code and other directories
# calstats: executable
# datdir: save cases to generate the BE statistics
# tmpdir: work directory
# outdir: the path to save output files


set exp="test_kgkg"
set base="/data/users/swei/DA_Project/AODDA_genbe/NMC_Bkerror"
set calstats="/data/users/swei/DA_Project/AODDA_genbe/NMC_Bkerror/sorc_aero/calcstats_aerosol.dp.exe"

set season="test"
switch ($season)
  case "MAM":
       set y4m2="201603 201604 201605"
       breaksw
  case "JJA":
       set y4m2="201606 201607 201608"
       breaksw
  case "SON":
       set y4m2="201609 201610 201611"
       breaksw
  case "DJF":
       set y4m2="201612 201701 201702"
       breaksw
  case "Year":
       set y4m2="201603 201604 201605 201606 201607 201608 201609 201610 201611 201612 201701 201702"
       breaksw
  case "test":
       set y4m2="201509"
endsw

set datdir="/data/users/swei/DA_Project/retro_test/ptmpd2/AODDA_gbbepx"
set tmpdir="/scratch/short/swei/$exp.$season"
set outdir="$base/scripts/output/$exp.$season"

if ( -d $tmpdir ) then
   rm -rf $tmpdir
endif

mkdir -p $tmpdir
cd $tmpdir

cp $calstats  ./stats.x

cat << EOF > stats.parm
 &NAMSTAT
   jcap=126,jcapin=126,jcapsmooth=126,nsig=64,nlat=192,nlon=384,maxcases=450,hybrid=.true.,smoothdeg=0.5,
   biasrm=.true.,vertavg=.true.,use_nemsio=.true.,modelname='ngac'
 /
EOF
#   biasrm=.false.,vertavg=.false.,use_nemsio=.true.

foreach hh ( 24 48 )
   foreach ymflag ( $y4m2 )
      ls $datdir/ngac.$ymflag*/ngac.t00z.sigf$hh >> infiles 
   end
end
#ls $datdir/sigf24.*.201507* >> infiles
#ls $datdir/sigf48.*.201507* >> infiles
#ls $datdir/sigf24.*.201606* >> infiles
#ls $datdir/sigf48.*.201606* >> infiles

ln -s -f infiles fort.10

# Configure MPI environment for GSI
module load license_intel/S4
module load intel/15.0-2
module load impi/5.0.3.048

setenv MPI_BUFS_PER_PROC 2048
setenv MPI_BUFS_PER_HOST 2048
setenv MPI_GROUP_MAX     256
setenv MPI_MEMMAP_OFF    1
setenv MP_STDOUTMODE     ORDERED
setenv OMP_NUM_THREADS   $NTHREADS
setenv KMP_STACKSIZE     512MB   #2048000
setenv KMP_AFFINITY      scatter
setenv APRUN             "srun"

${APRUN} ./stats.x < stats.parm  #> gsistats.out
#@ rc = $status

#rm $tmpdir/fort.[0-9]*

if ( -s gsir4.berror_stats.gcv && -s bgstats_sp.grd ) then
   echo "Generate NMC statistic error successfully"
   if ( ! -d $outdir ) then
       mkdir $outdir
   else
       rm -rf $outdir
   endif
   mv gsir4.berror_stats.gcv $outdir
   mv bgstats_sp.grd $outdir
#   mv biascor.grd $outdir
else
   echo "Failed to generate NMC statistic error"
endif

exit
